----------- SubDyn MultiMember Support Structure Input File ------------
SubDyn        template      - file. Compatible with OpenFAST v3.5.0
-------------------------- SIMULATION CONTROL ---------------------------------
True          Echo          - Echo input data to "<rootname>.SD.ech" (flag)
0.001         SDdeltaT      - Local Integration Step. If "default", the glue-code integration step will be used.
3             IntMethod     - Integration Method [1/2/3/4 = RK4/AB4/ABM4/AM2].
True          SttcSolve     - Solve dynamics about static equilibrium point
True          GuyanLoadCorrection - Include extra moment from lever arm at interface and rotate FEM for floating. !Recommended to set to true
-------------------- FEA and CRAIG-BAMPTON PARAMETERS---------------------------
1             FEMMod        - FEM switch: element model in the FEM. [1= Euler-Bernoulli(E-B); 2=Tapered E-B (unavailable); 3= 2-node Timoshenko; 4= 2-node tapered Timoshenko (unavailable)]
1             NDiv          - Number of sub-elements per member|
True          CBMod         - [T/F] If True perform C-B reduction, else full FEM dofs will be retained. If True, select Nmodes to retain in C-B reduced system.
18            Nmodes        - Number of internal modes to retain (ignored if CBMod=False). If Nmodes=0 --> Guyan Reduction.
1, 1, 1, 1, 1 JDampings     - Damping Ratios for each retained mode (% of critical) If Nmodes>0, list Nmodes structural damping ratios for each retained mode (% of critical), or a single damping ratio to be applied to all retained modes. (last entered value will be used for all remaining modes).
1             GuyanDampMod  - Guyan damping {0=none, 1=Rayleigh Damping, 2=user specified 6x6 matrix}
0, 0.7958     RayleighDamp  - Mass and stiffness proportional damping coefficients (Rayleigh Damping) [only if GuyanDampMod=1]
6             GuyanDampSize - Guyan damping matrix (6x6) [only if GuyanDampMod=2]
              0	              0	              0	              0	              0	              0
              0	              0	              0	              0	              0	              0
              0	              0	        1066100	              0	              0	              0
              0	              0	              0	              0	              0	              0
              0	              0	              0	              0	              0	              0
              0	              0	              0	              0	              0	              0
---- STRUCTURE JOINTS: joints connect structure members (~Hydrodyn Input File)---
28            NJoints       - Number of joints (-)
JointID         JointXss        JointYss        JointZss        JointType       JointDirX       JointDirY       JointDirZ       JointStiff     
(-)             (m)             (m)             (m)             (-)             (-)             (-)             (-)             (Nm/rad)       
              1	            -58	              0	            -14	              1	              0	              0	              0	              0
              2	             29	 5.02290000e+01	            -14	              1	              0	              0	              0	              0
              3	             29	-5.02290000e+01	            -14	              1	              0	              0	              0	              0
              4	              0	              0	-1.44000000e+01	              1	              0	              0	              0	              0
              5	              0	              0	              0	              1	              0	              0	              0	              0
              6	              0	              0	             15	              1	              0	              0	              0	              0
              7	              0	              0	             28	              1	              0	              0	              0	              0
              8	              0	              0	             41	              1	              0	              0	              0	              0
              9	              0	              0	             54	              1	              0	              0	              0	              0
             10	              0	              0	             67	              1	              0	              0	              0	              0
             11	              0	              0	             80	              1	              0	              0	              0	              0
             12	              0	              0	             93	              1	              0	              0	              0	              0
             13	              0	              0	            106	              1	              0	              0	              0	              0
             14	              0	              0	            119	              1	              0	              0	              0	              0
             15	              0	              0	            132	              1	              0	              0	              0	              0
             16	              0	              0	 1.44386000e+02	              1	              0	              0	              0	              0
             17	-3.53528221e+00	              0	 1.47833134e+02	              1	              0	              0	              0	              0
             18	-4.99964405e+00	              0	 1.49260984e+02	              1	              0	              0	              0	              0
             19	-5.44717891e+00	              0	 1.49308022e+02	              1	              0	              0	              0	              0
             20	-5.89471376e+00	              0	 1.49355059e+02	              1	              0	              0	              0	              0
             21	-7.08814003e+00	              0	 1.49480494e+02	              1	              0	              0	              0	              0
             22	-6.01941500e+00	              0	 1.49368125e+02	              1	              0	              0	              0	              0
             23	-5.89471376e+00	              0	 1.49355059e+02	              1	              0	              0	              0	              0
             24	-7.08814003e+00	              0	 1.49480494e+02	              1	              0	              0	              0	              0
             25	-7.58540098e+00	              0	 1.49532758e+02	              1	              0	              0	              0	              0
             26	-8.08266193e+00	              0	 1.49585022e+02	              1	              0	              0	              0	              0
             27	-6.01941500e+00	              0	 1.49368125e+02	              1	              0	              0	              0	              0
             28	-2.70287986e+00	              0	 1.47753712e+02	              1	              0	              0	              0	              0
------------------- BASE REACTION JOINTS: 1/0 for Locked/Free DOF @ each Reaction Node ---------------------
0             NReact        - Number of Joints with reaction forces; be sure to remove all rigid motion DOFs of the structure (else det([K])=[0])
RJointID        RctTDXss        RctTDYss        RctTDZss        RctRDXss        RctRDYss        RctRDZss        SSIfile        
(-)             (flag)          (flag)          (flag)          (flag)          (flag)          (flag)          (string)       
------- INTERFACE JOINTS: 1/0 for Locked (to the TP)/Free DOF @each Interface Joint (only Locked-to-TP implemented thus far (=rigid TP)) ---------
1             NInterf       - Number of interface joints locked to the Transition Piece (TP): be sure to remove all rigid motion dofs
IJointID        ItfTDXss        ItfTDYss        ItfTDZss        ItfRDXss        ItfRDYss        ItfRDZss       
(-)             (flag)          (flag)          (flag)          (flag)          (flag)          (flag)         
             26	              1	              1	              1	              1	              1	              1
----------------------------------- MEMBERS --------------------------------------
28            NMembers      - Number of frame members
MemberID        MJointID1       MJointID2       MPropSetID1     MPropSetID2     MType           COSMID         
(-)             (-)             (-)             (-)             (-)             (-)             (-)            
              1	              1	              6	              1	              1	              3	             -1
              2	              2	              6	              1	              1	              3	             -1
              3	              3	              6	              1	              1	              3	             -1
              4	              4	              6	              1	              1	              3	             -1
              5	              5	              6	              1	              1	              3	             -1
              6	              6	              7	              2	              3	              1	             -1
              7	              7	              8	              3	              4	              1	             -1
              8	              8	              9	              4	              5	              1	             -1
              9	              9	             10	              5	              6	              1	             -1
             10	             10	             11	              6	              7	              1	             -1
             11	             11	             12	              7	              8	              1	             -1
             12	             12	             13	              8	              9	              1	             -1
             13	             13	             14	              9	             10	              1	             -1
             14	             14	             15	             10	             11	              1	             -1
             15	             15	             16	             11	             12	              1	             -1
             16	             16	             17	             13	             14	              1	             -1
             17	             17	             18	             14	             15	              1	             -1
             18	             18	             19	             16	             16	              1	             -1
             19	             19	             20	             16	             16	              1	             -1
             20	             20	             21	             16	             16	              1	             -1
             21	             19	             22	              1	              1	              3	             -1
             22	             23	             24	             17	             17	              1	             -1
             23	             24	             25	             17	             17	              1	             -1
             24	             25	             26	             17	             17	              1	             -1
             25	             25	             27	              1	              1	              3	             -1
             26	             24	             21	              1	              1	              5	              1
             27	             23	             20	              2	              2	              5	              1
             28	             28	             16	              1	              1	              3	             -1
------------------ CIRCULAR BEAM CROSS-SECTION PROPERTIES -----------------------------
17            NPropSets     - Number of structurally unique cross-sections
PropSetID       YoungE          ShearG          MatDens         XsecD           XsecT          
(-)             (N/m2)          (N/m2)          (kg/m3)         (m)             (m)            
              1	210000000000000	  8080000000000	              1	              1	 4.00000000e-01
              2	   200000000000	    79300000000	           8346	             10	 9.00000000e-02
              3	   200000000000	    79300000000	           8346	             10	 8.71000000e-02
              4	   200000000000	    79300000000	           8346	             10	 6.97000000e-02
              5	   200000000000	    79300000000	           8346	             10	 6.66000000e-02
              6	   200000000000	    79300000000	           8346	             10	 4.90000000e-02
              7	   200000000000	    79300000000	           8346	             10	 4.56000000e-02
              8	   200000000000	    79300000000	           8346	             10	 2.81000000e-02
              9	   200000000000	    79300000000	           8346	             10	 2.56000000e-02
             10	   200000000000	    79300000000	           8346	             10	 9.90000000e-03
             11	   200000000000	    79300000000	           8346	             10	 9.90000000e-03
             12	   200000000000	    79300000000	           8346	 6.50000000e+00	 5.90000000e-03
             13	   205000000000	    80000000000	           7850	 6.50000000e+00	 5.00000000e-02
             14	   205000000000	    80000000000	           7850	 4.85231903e+00	 5.00000000e-02
             15	   205000000000	    80000000000	           7850	 2.20000000e+00	 5.00000000e-02
             16	   205000000000	    80000000000	           7850	 2.20000000e+00	 1.00000000e-01
             17	   205000000000	    80000000000	           7850	              3	 1.00000000e-01
----------------- ARBITRARY BEAM CROSS-SECTION PROPERTIES -----------------------------
0             NXPropSets    - Number of structurally unique non-circular cross-sections (if 0 the following table is ignored)
PropSetID       YoungE          ShearG          MatDens         XsecA           XsecAsx         XsecAsy         XsecJxx         XsecJyy         XsecJ0         
(-)             (N/m2)          (N/m2)          (kg/m3)         (m2)            (m2)            (m2)            (m4)            (m4)            (m4)           
-------------------------- CABLE PROPERTIES  -------------------------------------
0             NCablePropSets - Number of cable cable properties
PropSetID       EA              MatDens         T0              CtrlChannel    
(-)             (N)             (kg/m)          (N)             (-)            
----------------------- RIGID LINK PROPERTIES ------------------------------------
1             NRigidPropSets - Number of rigid link properties
PropSetID       MatDens        
(-)             (kg/m)         
              1	              0
------------------------ SPRING ELEMENT PROPERTIES ------------------------------------
2             NSpringPropSets - Number of spring properties
PropSetID       k11             k12             k13             k14             k15             k16             k22             k23             k24             k25             k26             k33             k34             k35             k36             k44             k45             k46             k55             k56             k66            
(-)             (N/m)           (N/m)           (N/m)           (N/rad)         (N/rad)         (N/rad)         (N/m)           (N/m)           (N/rad)         (N/rad)         (N/rad)         (N/m)           (N/rad)         (N/rad)         (N/rad)         (Nm/rad)        (Nm/rad)        (Nm/rad)        (Nm/rad)        (Nm/rad)        (Nm/rad)       
              1	    10000000000	              0	              0	              0	              0	              0	    10000000000	              0	              0	              0	              0	     3000000000	              0	              0	              0	              0	              0	              0	              0	              0	    50000000000
              2	    10000000000	              0	              0	              0	              0	              0	    10000000000	              0	              0	              0	              0	              0	              0	              0	              0	              0	              0	              0	              0	              0	    50000000000
---------------------- MEMBER COSINE MATRICES COSM(i,j) ------------------------
1             NCOSMs        - Number of unique cosine matrices (i.e., of unique member alignments including principal axis rotations); ignored if NXPropSets=0 or 9999 in any element below
COSMID          COSM11          COSM12          COSM13          COSM21          COSM22          COSM23          COSM31          COSM32          COSM33         
(-)             (-)             (-)             (-)             (-)             (-)             (-)             (-)             (-)             (-)            
              1	              0	             -1	              0	-1.04528500e-01	              0	-9.94521900e-01	 9.94521900e-01	              0	-1.04528500e-01
------------------------ JOINT ADDITIONAL CONCENTRATED MASSES--------------------------
5             NCmass        - Number of joints with concentrated masses; Global Coordinate System
CMJointID       JMass           JMXX            JMYY            JMZZ            JMXY            JMXZ            JMYZ            MCGX            MCGY            MCGZ           
(-)             (kg)            (kg*m^2)        (kg*m^2)        (kg*m^2)        (kg*m^2)        (kg*m^2)        (kg*m^2)        (m)             (m)             (m)            
              4	       17838000	    12507000000	    12507000000	    23667000000	              0	              0	              0	              0	              0	              0
             22	         238490	        3360624	        1779999	        1779999	              0	              0	              0	              0	              0	              0
             27	         130349	          75955	         972877	         896922	              0	              0	              0	              0	              0	              0
             28	 2.08414239e+05	              0	              0	              0	              0	              0	              0	              0	              0	              0
             16	          28280	              0	              0	 6.49381961e+06	              0	              0	              0	              0	              0	              0
---------------------------- OUTPUT: SUMMARY & OUTFILE ------------------------------
True          SumPrint      - Output a Summary File (flag).It contains: matrices K,M and C-B reduced M_BB, M-BM, K_BB, K_MM(OMG^2), PHI_R, PHI_L. It can also contain COSMs if requested.
1             OutCBModes    - Output Guyan and Craig-Bampton modes {0: No output, 1: JSON output}, (flag)
0             OutFEMModes   - Output first 30 FEM modes {0: No output, 1: JSON output} (flag)
False         OutCOSM       - Output cosine matrices with the selected output member forces (flag)
True          OutAll        - [T/F] Output all members' end forces
2             OutSwtch      - [1/2/3] Output requested channels to: 1=<rootname>.SD.out; 2=<rootname>.out (generated by FAST); 3=both files.
True          TabDelim      - Generate a tab-delimited output in the <rootname>.SD.out file
1             OutDec        - Decimation of output in the <rootname>.SD.out file
"ES11.4e2"    OutFmt        - Output format for numerical results in the <rootname>.SD.out file
"A11"         OutSFmt       - Output format for header strings in the <rootname>.SD.out file
------------------------- MEMBER OUTPUT LIST ------------------------------------------
7             NMOutputs     - Number of members whose forces/displacements/velocities/accelerations will be output (-) [Must be <= 9].
MemberID        NOutCnt         NodeCnt        
(-)             (-)             (-)            
              4	              2	              1	              2
              5	              2	              1	              2
              6	              2	              1	              2
             15	              2	              1	              2
             24	              2	              1	              2
             26	              2	              1	              2
             27	              2	              1	              2
------------------------- SDOutList: The next line(s) contains a list of output parameters that will be output in <rootname>.SD.out or <rootname>.out. ------
"M1N1TDxss, M1N1TDyss, M1N1TDzss, M1N2TDxss, M1N2TDyss, M1N2TDzss" 		 - PlatformCOG displacements
"M1N1RDxe, M1N1RDye, M1N1RDze, M1N2RDxe, M1N2RDye, M1N2RDze" 		 - PlatformCOG rotations
"M1N1FKxe, M1N1FKye, M1N1FKze, M1N2FKxe, M1N2FKye, M1N2FKze" 		 - PlatformCOG static (elastic) forces
"M1N1MKxe, M1N1MKye, M1N1MKze, M1N2MKxe, M1N2MKye, M1N2MKze" 		 - PlatformCOG static (elastic) moments
"M2N1TDxss, M2N1TDyss, M2N1TDzss, M2N2TDxss, M2N2TDyss, M2N2TDzss" 		 - PlatformRefz displacements
"M2N1RDxe, M2N1RDye, M2N1RDze, M2N2RDxe, M2N2RDye, M2N2RDze" 		 - PlatformRefz rotations
"M2N1FKxe, M2N1FKye, M2N1FKze, M2N2FKxe, M2N2FKye, M2N2FKze" 		 - PlatformRefz static (elastic) forces
"M2N1MKxe, M2N1MKye, M2N1MKze, M2N2MKxe, M2N2MKye, M2N2MKze" 		 - PlatformRefz static (elastic) moments
"M3N1TDxss, M3N1TDyss, M3N1TDzss, M3N2TDxss, M3N2TDyss, M3N2TDzss" 		 - TwrBas displacements
"M3N1RDxe, M3N1RDye, M3N1RDze, M3N2RDxe, M3N2RDye, M3N2RDze" 		 - TwrBas rotations
"M3N1FKxe, M3N1FKye, M3N1FKze, M3N2FKxe, M3N2FKye, M3N2FKze" 		 - TwrBas static (elastic) forces
"M3N1MKxe, M3N1MKye, M3N1MKze, M3N2MKxe, M3N2MKye, M3N2MKze" 		 - TwrBas static (elastic) moments
"M4N1TDxss, M4N1TDyss, M4N1TDzss, M4N2TDxss, M4N2TDyss, M4N2TDzss" 		 - TwrTop displacements
"M4N1RDxe, M4N1RDye, M4N1RDze, M4N2RDxe, M4N2RDye, M4N2RDze" 		 - TwrTop rotations
"M4N1FKxe, M4N1FKye, M4N1FKze, M4N2FKxe, M4N2FKye, M4N2FKze" 		 - TwrTop static (elastic) forces
"M4N1MKxe, M4N1MKye, M4N1MKze, M4N2MKxe, M4N2MKye, M4N2MKze" 		 - TwrTop static (elastic) moments
"M5N1TDxss, M5N1TDyss, M5N1TDzss, M5N2TDxss, M5N2TDyss, M5N2TDzss" 		 - ShftTip displacements
"M5N1RDxe, M5N1RDye, M5N1RDze, M5N2RDxe, M5N2RDye, M5N2RDze" 		 - ShftTip rotations
"M5N1FKxe, M5N1FKye, M5N1FKze, M5N2FKxe, M5N2FKye, M5N2FKze" 		 - ShftTip static (elastic) forces
"M5N1MKxe, M5N1MKye, M5N1MKze, M5N2MKxe, M5N2MKye, M5N2MKze" 		 - ShftTip static (elastic) moments
"M6N1TDxss, M6N1TDyss, M6N1TDzss, M6N2TDxss, M6N2TDyss, M6N2TDzss" 		 - MB1 displacements
"M6N1RDxe, M6N1RDye, M6N1RDze, M6N2RDxe, M6N2RDye, M6N2RDze" 		 - MB1 rotations
"M6N1FKxe, M6N1FKye, M6N1FKze, M6N2FKxe, M6N2FKye, M6N2FKze" 		 - MB1 static (elastic) forces
"M6N1MKxe, M6N1MKye, M6N1MKze, M6N2MKxe, M6N2MKye, M6N2MKze" 		 - MB1 static (elastic) moments
"M7N1TDxss, M7N1TDyss, M7N1TDzss, M7N2TDxss, M7N2TDyss, M7N2TDzss" 		 - MB2 displacements
"M7N1RDxe, M7N1RDye, M7N1RDze, M7N2RDxe, M7N2RDye, M7N2RDze" 		 - MB2 rotations
"M7N1FKxe, M7N1FKye, M7N1FKze, M7N2FKxe, M7N2FKye, M7N2FKze" 		 - MB2 static (elastic) forces
"M7N1MKxe, M7N1MKye, M7N1MKze, M7N2MKxe, M7N2MKye, M7N2MKze" 		 - MB2 static (elastic) moments
"ReactFXss, ReactFYss, ReactFZss, ReactMXss, ReactMYss, ReactMZss" 		 - Base moments and forces for bottom-fixed/landbased.
"IntfFXss, IntfFYss, IntfFZss, IntfMXss, IntfMYss, IntfMZss" 		 - Interface joint moments and forces.
"IntfTDXss, IntfTDYss, IntfTDZss, IntfRDXss, IntfRDYss , IntfRDZss" 		 - Displacements and rotations of the TP reference point in global coordinate sys.
"IntfTAXss, IntfTAYss, IntfTAZss, IntfRAXss, IntfRAYss, IntfRAZss" 		 - Translational and rotational accelerations of the TP reference point (platform reference point) location in SS coordinate system
END
---------------------------------------------------------------------------------------