----------- SubDyn v1.01.x MultiMember Support Structure Input File ------------
Based         on            - OC6 phase II: Monopile. Adjusted for OpenFAST v3.3.0 by Veronica Liverud Krathe (NTNU)
-------------------------- SIMULATION CONTROL  ---------------------------------
False         Echo          - Echo input data to "<rootname>.SD.ech" (flag)
"DEFAULT"     SDdeltaT      - Local Integration Step. If "default", the glue-code integration step will be used.
3             IntMethod     - Integration Method [1/2/3/4 = RK4/AB4/ABM4/AM2].
True          SttcSolve     - Solve dynamics about static equilibrium point
False         GuyanLoadCorrection - Include extra moment from lever arm at interface in interface reactions.
-------------------- FEA and CRAIG-BAMPTON PARAMETERS---------------------------
1             FEMMod        - FEM switch: element model in the FEM. [1= Euler-Bernoulli(E-B); 2=Tapered E-B (unavailable); 3= 2-node Timoshenko; 4= 2-node tapered Timoshenko (unavailable)]
1             NDiv          - Number of sub-elements per member
True          CBMod         - [T/F] If True perform C-B reduction, else full FEM dofs will be retained. If True, select Nmodes to retain in C-B reduced system.
5             Nmodes        - Number of internal modes to retain (ignored if CBMod=False). If Nmodes=0 --> Guyan Reduction.
1             JDampings     - Damping Ratios for each retained mode (% of critical) If Nmodes>0, list Nmodes structural damping ratios for each retained mode (% of critical), or a single damping ratio to be applied to all retained modes. (last entered value will be used for all remaining modes).
1             GuyanDampMod  - Guyan damping [0=none, 1=Rayleigh Damping, 2= user specified 6x6 matrix]
0, 0.0063 RayleighDamp - Mass and stiffness proportional damping coefficients (Rayleigh Damping) [only if GuyanDampMod=1]
6             GuyanDampSize - Guyan damping matrix (6x6) [only if GuyanDampMod=2]. R. Bergua: Damping matrix applied at the Transition Piece.
              0	              0	              0	              0	              0	              0
              0	              0	              0	              0	              0	              0
              0	              0	              0	              0	              0	              0
              0	              0	              0	              0	              0	              0
              0	              0	              0	              0	              0	              0
              0	              0	              0	              0	              0	              0
---- STRUCTURE JOINTS: joints connect structure members (~Hydrodyn Input File)---
5            NJoints       - Number of joints (-)
JointID         JointXss        JointYss        JointZss        JointType       JointDirX       JointDirY       JointDirZ       JointStiff      JointDamp      
(-)             (m)             (m)             (m)             (-)             (-)             (-)             (-)             (Nm/rad)        (Nm/rad.s)     
              1	              0	              0	            -30	              1	              0	              0	              0	              0	              0
              2	              0	              0	            -20	              1	              0	              0	              0	              0	              0
              3	              0	              0	            -10	              1	              0	              0	              0	              0	              0
              4	              0	              0	              0	              1	              0	              0	              0	              0	              0
              5	              0	              0	             10	              1	              0	              0	              0	              0	              0
------------------- BASE REACTION JOINTS: 1/0 for Locked/Free DOF @ each Reaction Node ---------------------
1             NReact        - Number of Joints with reaction forces; be sure to remove all rigid motion DOFs of the structure (else det([K])=[0])
RJointID        RctTDXss        RctTDYss        RctTDZss        RctRDXss        RctRDYss        RctRDZss        SSIfile        
(-)             (flag)          (flag)          (flag)          (flag)          (flag)          (flag)          (string)       
1	0	0	0	0	0	0	"Stiffness_matrix.txt"
------- INTERFACE JOINTS: 1/0 for Locked (to the TP)/Free DOF @each Interface Joint (only Locked-to-TP implemented thus far (=rigid TP)) ---------
1             NInterf       - Number of interface joints locked to the Transition Piece (TP): be sure to remove all rigid motion dofs
IJointID        ItfTDXss        ItfTDYss        ItfTDZss        ItfRDXss        ItfRDYss        ItfRDZss       
(-)             (flag)          (flag)          (flag)          (flag)          (flag)          (flag)         
             5	              1	              1	              1	              1	              1	              1
----------------------------------- MEMBERS --------------------------------------
4            NMembers      - Number of frame members
MemberID        MJointID1       MJointID2       MPropSetID1     MPropSetID2     MType          
(-)             (-)             (-)             (-)             (-)             (-)            
              1	              1	              2	              1	              1	              1
              2	              2	              3	              1	              1	              1
              3	              3	              4	              1	              1	              1
              4	              4	              5	              1	              1	              1
------------------ MEMBER X-SECTION PROPERTY data 1/2 [isotropic material for now: use this table for circular-tubular elements] ------------------------
1             NPropSets     - Number of structurally unique x-sections (i.e. how many groups of X-sectional properties are utilized throughout all of the members)
PropSetID       YoungE          ShearG          MatDens         XsecD           XsecT          
(-)             (N/m2)          (N/m2)          (kg/m3)         (m)             (m)            
              1	   210000000000	    80800000000	           8500	              9	 1.10000000e-01
------------------ MEMBER X-SECTION PROPERTY data 2/2 [isotropic material for now: use this table if any section other than circular, however provide COSM(i,j) below] ------------------------
0             NXPropSets    - Number of structurally unique non-circular x-sections (if 0 the following table is ignored)
PropSetID       YoungE          ShearG          MatDens         XsecA           XsecAsx         XsecAsy         XsecJxx         XsecJyy         XsecJ0         
(-)             (N/m2)          (N/m2)          (kg/m3)         (m2)            (m2)            (m2)            (m4)            (m4)            (m4)           
-------------------------- CABLE PROPERTIES  -------------------------------------
0             NCablePropSets - Number of cable cable properties
PropSetID       EA              MatDens         T0             
(-)             (N)             (kg/m)          (N)            
----------------------- RIGID LINK PROPERTIES ------------------------------------
0             NRigidPropSets - Number of rigid link properties
PropSetID       MatDens        
(-)             (kg/m)         
---------------------- MEMBER COSINE MATRICES COSM(i,j) ------------------------
0             NCOSMs        - Number of unique cosine matrices (i.e., of unique member alignments including principal axis rotations); ignored if NXPropSets=0 or 9999 in any element below
COSMID          COSM11          COSM12          COSM13          COSM21          COSM22          COSM23          COSM31          COSM32          COSM33         
(-)             (-)             (-)             (-)             (-)             (-)             (-)             (-)             (-)             (-)            
------------------------ JOINT ADDITIONAL CONCENTRATED MASSES--------------------------
0             NCmass        - Number of joints with concentrated masses; Global Coordinate System
CMJointID       JMass           JMXX            JMYY            JMZZ           
(-)             (kg)            (kg*m^2)        (kg*m^2)        (kg*m^2)       
---------------------------- OUTPUT: SUMMARY & OUTFILE ------------------------------
True          SumPrint      - Output a Summary File (flag).It contains: matrices K,M and C-B reduced M_BB, M-BM, K_BB, K_MM(OMG^2), PHI_R, PHI_L. It can also contain COSMs if requested.
1             OutCBModes    - Output Guyan and Craig-Bampton modes {0: No output, 1: JSON output}, (flag)
0             OutFEMModes   - Output first 30 FEM modes {0: No output, 1: JSON output} (flag)
False         OutCOSM       - Output cosine matrices with the selected output member forces (flag)
True         OutAll        - [T/F] Output all members' end forces
2             OutSwtch      - [1/2/3] Output requested channels to: 1=<rootname>.SD.out; 2=<rootname>.out (generated by FAST); 3=both files.
True          TabDelim      - Generate a tab-delimited output in the <rootname>.SD.out file
1             OutDec        - Decimation of output in the <rootname>.SD.out file
"ES11.4e2"    OutFmt        - Output format for numerical results in the <rootname>.SD.out file
"A11"         OutSFmt       - Output format for header strings in the <rootname>.SD.out file
------------------------- MEMBER OUTPUT LIST ------------------------------------------
0             NMOutputs     - Number of members whose forces/displacements/velocities/accelerations will be output (-) [Must be <= 9].
MemberID        NOutCnt         NodeCnt        
(-)             (-)             (-)            
------------------------- SSOutList: The next line(s) contains a list of output parameters that will be output in <rootname>.SD.out or <rootname>.out. ------
END
---------------------------------------------------------------------------------------